/batch
/config,noeldb,1     ! force off writing results to database
*get,_wallstrt,active,,time,wall
! ANSYS input file written by Workbench version 2021 R2
! File used for geometry attach: D:\ARM_Reports\CYCLIC_EXPANSION_003\TBSolves\WB_cbellot_1092_2\wbnew_files\dp0\SYS\DM\SYS.scdoc
/title,wbnew--Static Structural (A5)
! ****** Begin Custom Load Command Snippet ******
/COM, ACT Extensions:
/COM,     LSDYNA, 2021.1
/COM,     5f463412-bd3e-484b-87e7-cbc0a665e474, wbex
/COM,
! ****** End   Custom Load Command Snippet ******
*DIM,_wb_ProjectScratch_dir,string,248
_wb_ProjectScratch_dir(1) = 'D:\ARM_Reports\CYCLIC_EXPANSION_003\TBSolves\WB_cbellot_1092_2\_ProjectScratch\Scr6DD3\'
*DIM,_wb_SolverFiles_dir,string,248
_wb_SolverFiles_dir(1) = 'D:\ARM_Reports\CYCLIC_EXPANSION_003\TBSolves\WB_cbellot_1092_2\wbnew_files\dp0\SYS\MECH\'
*DIM,_wb_userfiles_dir,string,248
_wb_userfiles_dir(1) = 'D:\ARM_Reports\CYCLIC_EXPANSION_003\TBSolves\WB_cbellot_1092_2\wbnew_files\user_files\'
/com,--- Data in consistent MKS units. See Solving Units in the help system for more information.
/units,MKS
/nopr
/wb,file,start              !  signify a WB generated input file
/prep7
! Turn off shape checking because checks already performed inside WB mesher.
! See help system for more information.
SHPP,OFF,,NOWARN
/nolist
etcon,set             ! allow ANSYS to choose best KEYOP's for 180x elements, resets any applicable keyopt to MAPDL defaults
/com,*********** Nodes for the whole assembly ***********
nblock,3,,2992
(1i9,3e20.9e3)
        1     1.000000000E-03     6.700000000E-04    -1.400000000E-02
        2     2.000000000E-03     6.700000000E-04    -1.400000000E-02
        3     3.000000000E-03     6.700000000E-04    -1.400000000E-02
        4     4.000000000E-03     6.700000000E-04    -1.400000000E-02
        5     5.000000000E-03     6.700000000E-04    -1.400000000E-02
        6     6.000000000E-03     6.700000000E-04    -1.400000000E-02
        7     7.000000000E-03     6.700000000E-04    -1.400000000E-02
        8     8.000000000E-03     6.700000000E-04    -1.400000000E-02
        9     9.000000000E-03     6.700000000E-04    -1.400000000E-02
       10     1.000000000E-02     6.700000000E-04    -1.400000000E-02
       11     1.100000000E-02     6.700000000E-04    -1.400000000E-02
       12     1.200000000E-02     6.700000000E-04    -1.400000000E-02
       13     1.300000000E-02     6.700000000E-04    -1.400000000E-02
       14     1.400000000E-02     6.700000000E-04    -1.400000000E-02
       15     1.000000000E-03     6.700000000E-04    -1.300000000E-02
       16     2.000000000E-03     6.700000000E-04    -1.300000000E-02
       17     3.000000000E-03     6.700000000E-04    -1.300000000E-02
       18     4.000000000E-03     6.700000000E-04    -1.300000000E-02
       19     5.000000000E-03     6.700000000E-04    -1.300000000E-02
       20     6.000000000E-03     6.700000000E-04    -1.300000000E-02
! ... 2701 like lines cut
/wb,elem,start            !  set before creation of elements
/com,*********** Elements for Body 1 "SYS\Solid" ***********
et,1,186
keyo,1,2,1          ! set full integration on SOLID186
eblock,19,solid,,450
(19i9)
        1        1        1        1        0        0        0        0       20        0        1        1      711      739      741      392      738      740      755
      773     2638     2679      774     1999     2677     2680     2000      771     2637     2678     2682
        1        1        1        1        0        0        0        0       20        0        2        1      741      739      711      393      602      603      604
      774     2679     2638      773     2003     2448     2450     2004      772     2449     2451     2453
        1        1        1        1        0        0        0        0       20        0        3        1       15      712      711      392      378      737      738
      770      844     2636      773     1970     1971     2676     1999      771      842     2640     2637
        1        1        1        1        0        0        0        0       20        0        4        1      711      712       15      393      604      605      407
      773     2636      844      770     2004     2452     2046     2002      772     2453     2455      843
        1        1        1        1        0        0        0        0       20        0        5       15       29      713      712      378      364      736      737
      841      901     2639      844     1941     1942     2675     1971      842      899     2642     2640
        1        1        1        1        0        0        0        0       20        0        6       15      712      713       29      407      605      606      421
      844     2639      901      841     2046     2454     2075     2045      843     2455     2457      900
        1        1        1        1        0        0        0        0       20        0        7       29       43      714      713      364      350      735      736
      898      958     2641      901     1912     1913     2674     1942      899      956     2644     2642
        1        1        1        1        0        0        0        0       20        0        8       29      713      714       43      421      606      607      435
      901     2641      958      898     2075     2456     2104     2074      900     2457     2459      957
        1        1        1        1        0        0        0        0       20        0        9       43       57      715      714      350      336      734      735
      955     1015     2643      958     1883     1884     2673     1913      956     1013     2646     2644
        1        1        1        1        0        0        0        0       20        0       10       43      714      715       57      435      607      608      449
      958     2643     1015      955     2104     2458     2133     2103      957     2459     2461     1014
! ... 881 like lines cut
!Material Id = {C0396033-B84C-4A65-98D6-A06A4480CC4D}
/wb,elem,end               !  done creating elements
/com,*********** Send User Defined Coordinate System(s) ***********
csys,0
toffst,273.15,  ! Temperature offset from absolute zero
/com,*********** Set Reference Temperature ***********
tref,22.
/wb,mat,start              !  starting to send materials
/com,*********** Send Materials ***********
Temperature = 'TEMP' ! Temperature
MP,DENS,1,7850,	! kg m^-3
MP,ALPX,1,1.2e-05,	! C^-1
MP,C,1,434,	! J kg^-1 C^-1
MP,KXX,1,60.5,	! W m^-1 C^-1
MP,RSVX,1,1.7e-07,	! kg m^3 A^-2 s^-3
MP,EX,1,200000000000,	! Pa
MP,NUXY,1,0.3,
MP,MURX,1,10000,
MP,UVID,1,805943dc-1716-4c9c-ba8c-bd4d8c33be37
MP,UMID,1,59002a79-71c2-428e-906b-55d7dbee100e

/wb,mat,end                !  done sending materials
!************************* Model Summary ********************
!SYS\Solid,	Structural Steel,	matid,	1
!************************* End Model Summary ********************
! get the diagonal of the bounding box. Needed later for other things
*get,_xmin,node,,mnloc,x
*get,_ymin,node,,mnloc,y
*get,_zmin,node,,mnloc,z
*get,_xmax,node,,mxloc,x
*get,_ymax,node,,mxloc,y
*get,_zmax,node,,mxloc,z
_ASMDIAG=(_xmax-_xmin)*(_xmax-_xmin)+(_ymax-_ymin)*(_ymax-_ymin)+(_zmax-_zmin)*(_zmax-_zmin)
_ASMDIAG=SQRT(_ASMDIAG)
/wb,contact,start          !  starting to send contact
/wb,contact,end            !  done creating contacts
/golist
/wb,load,start             !  starting to send loads
/com,*********** Fixed Supports ***********
CMBLOCK,_FIXEDSU,NODE,      125
(8i10)
       618       619       620       621       622       623       624       625
       626       627       628       629       630       631       632       633
       679       680       681       682       683       684       685       686
       687       688       689       690       691       692       693       694
       695       696       697       698       699       700       701       702
       703       704       705       706       707       708       709       710
      2480      2481      2482      2483      2484      2485      2486      2487
      2488      2489      2490      2491      2492      2493      2494      2495
      2496      2497      2498      2499      2500      2501      2502      2503
      2504      2505      2506      2507      2508      2509      2511      2588
      2589      2590      2591      2592      2593      2594      2595      2596
      2597      2598      2599      2600      2601      2602      2603      2604
      2605      2606      2607      2608      2609      2610      2611      2612
      2613      2614      2615      2616      2617      2618      2619      2620
      2621      2622      2623      2624      2625      2626      2627      2628
      2629      2630      2631      2632      2633
cmsel,s,_FIXEDSU
d,all,all
nsel,all
/com,*********** Define Pressure Using Surface Effect Elements "Pressure" ***********
et,2,154
eblock,10,,,225
(15i9)
     1021        2        2        2        0      604      393      602      603     2004     2003     2448     2450
     1022        2        2        2        0      605      407      393      604     2046     2002     2004     2452
     1023        2        2        2        0      606      421      407      605     2075     2045     2046     2454
     1024        2        2        2        0      607      435      421      606     2104     2074     2075     2456
     1025        2        2        2        0      608      449      435      607     2133     2103     2104     2458
     1026        2        2        2        0      609      463      449      608     2162     2132     2133     2460
     1027        2        2        2        0      610      477      463      609     2191     2161     2162     2462
     1028        2        2        2        0      611      491      477      610     2220     2190     2191     2464
     1029        2        2        2        0      612      505      491      611     2249     2219     2220     2466
     1030        2        2        2        0      613      519      505      612     2278     2248     2249     2468
     1031        2        2        2        0      614      533      519      613     2307     2277     2278     2470
     1032        2        2        2        0      615      547      533      614     2336     2306     2307     2472
     1033        2        2        2        0      616      561      547      615     2365     2335     2336     2474
     1034        2        2        2        0      617      575      561      616     2393     2364     2365     2476
     1035        2        2        2        0      618      619      575      617     2480     2394     2393     2478
     1036        2        2        2        0      393      394      601      602     2001     2007     2446     2003
     1037        2        2        2        0      407      408      394      393     2044     2006     2001     2002
     1038        2        2        2        0      421      422      408      407     2073     2048     2044     2045
     1039        2        2        2        0      435      436      422      421     2102     2077     2073     2074
     1040        2        2        2        0      449      450      436      435     2131     2106     2102     2103
! ... 206 like lines cut
esel,s,type,,2
keyop,2,7,0                ! Use deformed area for application of load
esel,all
esel,all
/gst,on,on
fini
*get,_numnode,node,0,count
*get,_numelem,elem,0,count
*get, _MAXELEMNUM, elem, 0, NUM, MAX
*get, _MAXNODENUM, node, 0, NUM, MAX
*get, _MAXELEMTYPE, etyp, 0, NUM, MAX
*get, _MAXREALCONST, real, 0, NUM, MAX
/go
/wb,load,end               !  done creating loads
/com,--- Number of total nodes = %_numnode%
/com,--- Number of contact elements = 225
/com,--- Number of spring elements = 0
/com,--- Number of bearing elements = 0
/com,--- Number of solid elements = 450
/com,--- Number of condensed parts = 0
/com,--- Number of total elements = %_numelem%
*get,_wallbsol,active,,time,wall
/com,****************************************************************************
/com,*************************    SOLUTION       ********************************
/com,****************************************************************************
/solu
antype,0                   ! static analysis
_thickRatio=  0     ! Ratio of thick parts in the model
eqsl,sparse,,,,,1
cntr,print,1               ! print out contact info and also make no initial contact an error
dmpoption,emat,no             ! Don't combine emat file for DANSYS
dmpoption,esav,no             ! Don't combine esav file for DANSYS
nldiag,cont,iter           ! print out contact info each equilibrium iteration
rescontrol,,none                 ! Do not keep any restart files
/com,****************************************************
/com,******************* SOLVE FOR LS 1 OF 1 ****************
esel,s,type,,2
nsle
sf,all,pres,100000.
nsel,all
esel,all
esel,all
/nopr
/gopr
nsub,1,1,1
time,1.
outres,erase
outres,all,none
outres,nsol,all,
outres,rsol,all
outres,eangl,all
outres,etmp,all
outres,veng,all
outres,strs,all,
outres,epel,all,
outres,eppl,all,
outres,cont,all,
! *********** WB SOLVE COMMAND ***********
! check interactive state
*get,ANSINTER_,active,,int
*if,ANSINTER_,ne,0,then
/eof
*endif
solve
/com *************** Write FE CONNECTORS ********* 
CEWRITE,file,ce,,INTE
/com,****************************************************
/com,*************** FINISHED SOLVE FOR LS 1 *************
*get,_wallasol,active,,time,wall
/nopr
*get,_numnode,node,0,count
*get,_numelem,elem,0,count
*get, _MAXELEMNUM, elem, 0, NUM, MAX
*get, _MAXNODENUM, node, 0, NUM, MAX,,,INTERNAL
*get, _MAXELEMTYPE, etyp, 0, NUM, MAX
*get, _MAXREALCONST, real, 0, NUM, MAX
/gopr
/post1
xmlo,ENCODING,ISO-8859-1
xmlo,parm
/xml,parm,xml
fini
/gopr
*get,_walldone,active,,time,wall
_preptime=(_wallbsol-_wallstrt)*3600
_solvtime=(_wallasol-_wallbsol)*3600
_posttime=(_walldone-_wallasol)*3600
_totaltim=(_walldone-_wallstrt)*3600
*get,_dlbratio,active,0,solu,dlbr
*get,_combtime,active,0,solu,comb
*get,_ssmode,active,0,solu,ssmm
*get,_ndofs,active,0,solu,ndof
/com,--- Total number of nodes = %_numnode%
/com,--- Total number of elements = %_numelem%
/com,--- Element load balance ratio = %_dlbratio%
/com,--- Time to combine distributed files = %_combtime%
/com,--- Sparse memory mode = %_ssmode%
/com,--- Number of DOF = %_ndofs%
/wb,file,end               ! done with WB generated input
